2020-10-22T10:45:17,382  INFO Gbl:63 JVM: 11.0.8; Oracle Corporation; mixed mode; 64-bit
2020-10-22T10:45:17,383  INFO Gbl:67 OS: Linux; 5.8.16-2-MANJARO; amd64
2020-10-22T10:45:17,383  INFO Gbl:70 CPU cores: 4
2020-10-22T10:45:17,388  INFO Gbl:71 max. Memory: 1982.0MB (2078277632B)
2020-10-22T10:45:17,391  INFO Gbl:109 MATSim-Build: re5d8ada6f1f1f718c16245a87aa9d47d3884ed61 (2020-10-15 19:49:11)
2020-10-22T10:45:17,398  INFO ControlerListenerManagerImpl:107 calling notifyStartup on org.matsim.guice.DependencyGraphControlerListener
2020-10-22T10:45:17,428  INFO MemoryObserver:41 used RAM: 252 MB  free: 74 MB  total: 327 MB
2020-10-22T10:45:17,580  INFO ControlerListenerManagerImpl:107 calling notifyStartup on org.matsim.counts.CountsControlerListener
2020-10-22T10:45:17,580  INFO ControlerListenerManagerImpl:107 calling notifyStartup on org.matsim.analysis.ModeStatsControlerListener
2020-10-22T10:45:17,580  INFO ControlerListenerManagerImpl:107 calling notifyStartup on org.matsim.analysis.ScoreStatsControlerListener
2020-10-22T10:45:17,581  INFO ControlerListenerManagerImpl:110 all ControlerStartupListeners called.
2020-10-22T10:45:17,581  INFO ControlerUtils:79 config dump before iterations start
2020-10-22T10:45:17,652  INFO ControlerUtils:83 

<?xml version="1.0" encoding="UTF-8"?>
<!DOCTYPE config SYSTEM "http://www.matsim.org/files/dtd/config_v2.dtd">
<config>
	<module name="JDEQSim" >
		<param name="carSize" value="7.5" />
		<param name="endTime" value="undefined" />
		<param name="flowCapacityFactor" value="1.0" />
		<param name="gapTravelSpeed" value="15.0" />
		<param name="minimumInFlowCapacity" value="1800.0" />
		<param name="squeezeTime" value="1800.0" />
		<param name="storageCapacityFactor" value="1.0" />
	</module>
	<module name="TimeAllocationMutator" >
		<!-- Default:true; Defines whether time mutation changes an activity's duration. -->
		<param name="mutationAffectsDuration" value="true" />
		<!-- Default:1800.0; Defines how many seconds a time mutation can maximally shift a time. -->
		<param name="mutationRange" value="1800.0" />
	</module>
	<module name="changeMode" >
		<!-- Defines whether car availability is considered be considered or not. An agent has no car only if it has no license, or never access to a car. Default: true -->
		<param name="ignoreCarAvailability" value="false" />
		<!-- Defines the mode switch behavior. Possible values [fromAllModesToSpecifiedModes, fromSpecifiedModesToSpecifiedModes] Default: fromSpecifiedModesToSpecifiedModes. -->
		<param name="modeSwitchBehavior" value="fromSpecifiedModesToSpecifiedModes" />
		<!-- Defines all the modes available, including chain-based modes, seperated by commas -->
		<param name="modes" value="pt,drt" />
	</module>
	<module name="controler" >
		<!-- Compression algorithm to use when writing out data to files. Possible values: [none, gzip, lz4, zst] -->
		<param name="compressionType" value="gzip" />
		<!-- Sets whether graphs showing some analyses should automatically be generated during the simulation. The generation of graphs usually takes a small amount of time that does not have any weight in big simulations, but add a significant overhead in smaller runs or in test cases where the graphical output is not even requested. -->
		<param name="createGraphs" value="true" />
		<!-- true if at the end of a run, plans, network, config etc should be dumped to a file -->
		<param name="dumpDataAtEnd" value="true" />
		<!-- Default=false. If enabled, the router takes travel times needed for turning moves into account. Cannot be used if the (Fast)AStarLandmarks routing or TravelTimeCalculator.separateModes is enabled. -->
		<param name="enableLinkToLinkRouting" value="false" />
		<!-- Default=xml; Specifies the file format for writing events. Currently supported: [xml, pb, json]
		Multiple values can be specified separated by commas (','). -->
		<param name="eventsFileFormat" value="xml" />
		<!-- Default=0. First Iteration of a simulation. -->
		<param name="firstIteration" value="0" />
		<!-- Default=1000. Last Iteration of a simulation. -->
		<param name="lastIteration" value="0" />
		<!-- Defines which mobility simulation will be used. Currently supported: qsim JDEQSim hermes 
		Depending on the chosen mobsim, you'll have to add additional config modules to configure the corresponding mobsim.
		For 'qsim', add a module 'qsim' to the config. -->
		<param name="mobsim" value="qsim" />
		<param name="outputDirectory" value="./output" />
		<!-- Possible values: failIfDirectoryExists, overwriteExistingFiles, deleteDirectoryIfExists -->
		<param name="overwriteFiles" value="deleteDirectoryIfExists" />
		<!-- The type of routing (least cost path) algorithm used, may have the values: Dijkstra, FastDijkstra, AStarLandmarks or FastAStarLandmarks -->
		<param name="routingAlgorithmType" value="AStarLandmarks" />
		<!-- An identifier for the current run which is used as prefix for output files and mentioned in output xml files etc. -->
		<param name="runId" value="null" />
		<!-- Comma-separated list of visualizer output file formats. `transims', `googleearth', and `otfvis'. -->
		<param name="snapshotFormat" value="" />
		<!-- iterationNumber % writeEventsInterval == 0 defines in which iterations events are written to a file. `0' disables events writing completely. -->
		<param name="writeEventsInterval" value="10" />
		<!-- iterationNumber % writePlansInterval == 0 defines (hopefully) in which iterations plans are written to a file. `0' disables plans writing completely.  Some plans in early iterations are always written -->
		<param name="writePlansInterval" value="10" />
		<!-- iterationNumber % writeSnapshotsInterval == 0 defines in which iterations snapshots are written to a file. `0' disables snapshots writing completely -->
		<param name="writeSnapshotsInterval" value="1" />
		<!-- iterationNumber % writeEventsInterval == 0 defines in which iterations trips CSV are written to a file. `0' disables trips writing completely. -->
		<param name="writeTripsInterval" value="10" />
	</module>
	<module name="counts" >
		<!-- Transport modes that will be respected for the counts comparison. 'car' is default, which includes also bussed from the pt simulation module. Use this parameter in combination with 'filterModes' = true! -->
		<param name="analyzedModes" value="car" />
		<!-- Specifies over how many iterations the link volumes should be averaged that are used for the counts comparison. Use 1 or 0 to only use the link volumes of a single iteration. This values cannot be larger than the value specified for writeCountsInterval -->
		<param name="averageCountsOverIterations" value="5" />
		<!-- factor by which to re-scale the simulated values.  necessary when simulation runs with something different from 100%.  needs to be adapted manually -->
		<param name="countsScaleFactor" value="1.0" />
		<!-- distance to distanceFilterCenterNode to include counting stations. The unit of distance is the Euclidean distance implied by the coordinate system -->
		<param name="distanceFilter" value="null" />
		<!-- node id for center node of distance filter -->
		<param name="distanceFilterCenterNode" value="null" />
		<!-- If true, link counts from legs performed on modes not included in the 'analyzedModes' parameter are ignored. -->
		<param name="filterModes" value="false" />
		<!-- The Coordinates Reference System in which the coordinates are expressed in the input file. At import, the coordinates will be converted to the coordinate system defined in "global", and willbe converted back at export. If not specified, no conversion happens. -->
		<param name="inputCRS" value="null" />
		<!-- input file name to counts package -->
		<param name="inputCountsFile" value="null" />
		<!-- possible values: `html', `kml', `txt', `all' -->
		<param name="outputformat" value="txt" />
		<!-- Specifies how often the counts comparison should be calculated and written. -->
		<param name="writeCountsInterval" value="10" />
	</module>
	<module name="dvrp" >
		<!-- Mode of which the network will be used for throwing events and hence calculating travel times. Default is car. -->
		<param name="mobsimMode" value="car" />
		<!-- Set of modes of which the network will be used for DVRP travel time estimation and routing DVRP vehicles. Each specific DVRP mode may use a subnetwork of this network for routing vehicles (e.g. DRT buses travelling only along a specified links or serving a limited area). Default is "car" (i.e. single-element set of modes), i.e. the car network is used. Empty value "" (i.e. empty set of modes) means no network filtering, i.e. the original scenario.network is used -->
		<param name="networkModes" value="car" />
		<!-- Used for OFFLINE estimation of travel times for VrpOptimizer by means of the exponential moving average. The weighting decrease, alpha, must be in (0,1]. We suggest small values of alpha, e.g. 0.05. The averaging starts from the initial travel time estimates. If not provided, the free-speed TTs is used as the initial estimates -->
		<param name="travelTimeEstimationAlpha" value="0.05" />
		<!-- Used for ONLINE estimation of travel times for VrpOptimizer by combining WithinDayTravelTime and DvrpOfflineTravelTimeEstimator. The beta coefficient is provided in seconds and should be either 0 (no online estimation) or positive (mixed online-offline estimation). For 'beta = 0', only the offline estimate is used: 'onlineTT(t) = offlineTT(t)', where 'offlineTT(t)' in the offline estimate for TT at time 't', For 'beta > 0', estimating future TTs at time 't', uses the currently observed TT to correct the offline estimates is made: where 'currentTT' is the currently observed TT, and 'correction = min(1, max(0, 1 - (time - currentTime) / beta))' The rule is that correction decreases linearly from 1 (when 'time = currentTime') to 0 (when 'time = currentTime + beta' For 'time > currentTime + beta' correction is 0, whereas if 'time < currentTime' it is 1. If beta is sufficiently large, 'beta >> 0', only the currently observed TT is used. -->
		<param name="travelTimeEstimationBeta" value="0.0" />
	</module>
	<module name="facilities" >
		<!-- This defines how facilities should be created. Possible values: none fromFile setInScenario onePerActivityLinkInPlansFile onePerActivityLinkInPlansFileExceptWhenCoordinatesAreGiven onePerActivityLocationInPlansFile  -->
		<param name="facilitiesSource" value="none" />
		<!-- A prefix to be used for auto-generated IDs. -->
		<param name="idPrefix" value="f_auto_" />
		<!-- The Coordinates Reference System in which the coordinates are expressed in the input file. At import, the coordinates will be converted to the coordinate system defined in "global", and willbe converted back at export. If not specified, no conversion happens. -->
		<param name="inputCRS" value="null" />
		<param name="inputFacilitiesFile" value="null" />
		<param name="inputFacilityAttributesFile" value="null" />
		<param name="insistingOnUsingDeprecatedFacilitiesAttributeFile" value="false" />
	</module>
	<module name="global" >
		<param name="coordinateSystem" value="Atlantis" />
		<param name="defaultDelimiter" value=";" />
		<param name="insistingOnDeprecatedConfigVersion" value="true" />
		<!-- "global" number of threads.  This number is used, e.g., for replanning, but NOT in QSim.  This can typically be set to as many cores as you have available, or possibly even slightly more. -->
		<param name="numberOfThreads" value="4" />
		<param name="randomSeed" value="4392" />
	</module>
	<module name="hermes" >
		<!-- Simulation End Time -->
		<param name="endTime" value="30:00:00" />
		<param name="flowCapacityFactor" value="1.0" />
		<param name="mainMode" value="car" />
		<param name="storageCapacityFactor" value="1.0" />
		<!-- time in seconds.  Time after which the frontmost vehicle on a link is called `stuck' if it does not move. Set to Integer.MAX_VALUE to disable this behavior -->
		<param name="stuckTime" value="10" />
		<!-- treats PT as deterministic. PT vehicles will run with a steady speed. Should be used with separate network layers for PT and other network modes. -->
		<param name="useDeterministicPt" value="false" />
	</module>
	<module name="households" >
		<param name="inputFile" value="null" />
		<param name="inputHouseholdAttributesFile" value="null" />
		<param name="insistingOnUsingDeprecatedHouseholdsAttributeFile" value="false" />
	</module>
	<module name="linkStats" >
		<!-- Specifies over how many iterations the link volumes should be averaged that are used for the link statistics. Use 1 or 0 to only use the link volumes of a single iteration. This values cannot be larger than the value specified for writeLinkStatsInterval -->
		<param name="averageLinkStatsOverIterations" value="5" />
		<!-- Specifies how often the link stats should be calculated and written. Use 0 to disable the generation of link stats. -->
		<param name="writeLinkStatsInterval" value="10" />
	</module>
	<module name="multiModeDrt" >
		<parameterset type="drt" >
			<!-- If true, the startLink is changed to last link in the current schedule, so the taxi starts the next day at the link where it stopped operating the day before. False by default. -->
			<param name="changeStartLinkToLastLinkInSchedule" value="false" />
			<!-- allows to configure a service area per drt mode.Used with serviceArea Operational Scheme -->
			<param name="drtServiceAreaShapeFile" value="null" />
			<!-- Beeline distance factor for DRT. Used in analyis and in plans file. The default value is 1.3. -->
			<param name="estimatedBeelineDistanceFactor" value="1.3" />
			<!-- Beeline-speed estimate for DRT. Used in analysis, optimisation constraints and in plans file, [m/s]. The default value is 25 km/h -->
			<param name="estimatedDrtSpeed" value="8.333333333333334" />
			<!-- Idle vehicles return to the nearest of all start links. See: DvrpVehicle.getStartLink() -->
			<param name="idleVehiclesReturnToDepots" value="false" />
			<!-- Defines the slope of the maxTravelTime estimation function (optimisation constraint), i.e. maxTravelTimeAlpha * estimated_drt_travel_time + maxTravelTimeBeta. Alpha should not be smaller than 1. -->
			<param name="maxTravelTimeAlpha" value="1.5" />
			<!-- Defines the shift of the maxTravelTime estimation function (optimisation constraint), i.e. maxTravelTimeAlpha * estimated_drt_travel_time + maxTravelTimeBeta. Beta should not be smaller than 0. -->
			<param name="maxTravelTimeBeta" value="1200.0" />
			<!-- Max wait time for the bus to come (optimisation constraint). -->
			<param name="maxWaitTime" value="1200.0" />
			<!-- Maximum beeline distance (in meters) to next stop location in stopbased system for access/egress walk leg to/from drt. If no stop can be found within this maximum distance will return null (in most cases caught by fallback routing module). -->
			<param name="maxWalkDistance" value="1.7976931348623157E308" />
			<!-- Mode which will be handled by PassengerEngine and VrpOptimizer (passengers'/customers' perspective) -->
			<param name="mode" value="drt" />
			<!-- Number of threads used for parallel evaluation of request insertion into existing schedules. Scales well up to 4, due to path data provision, the most computationally intensive part, using up to 4 threads. Default value is 'min(4, no. of cores available to JVM)' -->
			<param name="numberOfThreads" value="4" />
			<!-- Operational Scheme, either of door2door, stopbased or serviceAreaBased. door2door by default -->
			<param name="operationalScheme" value="door2door" />
			<!-- If true, the max travel and wait times of a submitted request are considered hard constraints (the request gets rejected if one of the constraints is violated). If false, the max travel and wait times are considered soft constraints (insertion of a request that violates one of the constraints is allowed, but its cost is increased by additional penalty to make it relatively less attractive). Penalisation of insertions can be customised by injecting a customised InsertionCostCalculator.PenaltyCalculator -->
			<param name="rejectRequestIfMaxWaitOrTravelTimeViolated" value="true" />
			<!-- Bus stop duration. Must be positive. -->
			<param name="stopDuration" value="30.0" />
			<!-- Stop locations file (transit schedule format, but without lines) for DRT stops. Used only for the stopbased mode -->
			<param name="transitStopFile" value="null" />
			<!-- Limit the operation of vehicles to links (of the 'dvrp_routing' network) with 'allowedModes' containing this 'mode'. For backward compatibility, the value is set to false by default - this means that the vehicles are allowed to operate on all links of the 'dvrp_routing' network. The 'dvrp_routing' is defined by DvrpConfigGroup.networkModes) -->
			<param name="useModeFilteredSubnetwork" value="false" />
			<!-- An XML file specifying the vehicle fleet. The file format according to dvrp_vehicles_v1.dtd -->
			<param name="vehiclesFile" value="drtvehicles.xml" />
			<!-- Writes out detailed DRT customer stats in each iteration. True by default. -->
			<param name="writeDetailedCustomerStats" value="true" />
			<parameterset type="ExtensiveInsertionSearch" >
				<param name="admissibleBeelineSpeedFactor" value="1.5" />
				<param name="nearestInsertionsAtEndLimit" value="40" />
			</parameterset>
		</parameterset>
	</module>
	<module name="network" >
		<!-- The Coordinates Reference System in which the coordinates are expressed in the input file. At import, the coordinates will be converted to the coordinate system defined in "global", and willbe converted back at export. If not specified, no conversion happens. -->
		<param name="inputCRS" value="null" />
		<param name="inputChangeEventsFile" value="null" />
		<param name="inputNetworkFile" value="network.xml" />
		<param name="laneDefinitionsFile" value="null" />
		<param name="timeVariantNetwork" value="false" />
	</module>
	<module name="otfvis" >
		<!-- The (initial) size of the agents.  Only a range of numbers is allowed, otherwise otfvis aborts rather ungracefully, or displays no agents at all. -->
		<param name="agentSize" value="120.0" />
		<!-- coloring scheme for otfvis.  Currently (2012) allowed values: standard bvg bvg2 byId gtfs taxicab infection -->
		<param name="coloringScheme" value="standard" />
		<!-- If non-moving items (e.g. agents at activities, at bus stops, etc.) should be showed.  May affect all non-moving items. -->
		<param name="drawNonMovingItems" value="false" />
		<param name="drawTransitFacilities" value="true" />
		<param name="drawTransitFacilityIds" value="true" />
		<param name="leftMouseFunc" value="Zoom" />
		<!-- The (initial) width of the links of the network. Use positive floating point values. -->
		<param name="linkWidth" value="30.0" />
		<!-- Link width is proportional to `numberOfLanes' or to `capacity'. -->
		<param name="linkwidthIsProportionalTo" value="numberOfLanes" />
		<!-- URL to get WMS tiles from. For a local GeoServer instance, use http://localhost:8080/geoserver/wms?service=WMS& -->
		<param name="mapBaseURL" value="" />
		<!-- The WMS layer to display. For GeoServer and a layer called clipped in workspace mz, use mz:clipped -->
		<param name="mapLayer" value="" />
		<!-- Render everything on top of map tiles. Default: From tiles.openstreetmap.org -->
		<param name="mapOverlayMode" value="false" />
		<param name="middleMouseFunc" value="Pan" />
		<param name="rightMouseFunc" value="Select" />
		<param name="showTeleportation" value="false" />
	</module>
	<module name="parallelEventHandling" >
		<!-- Estimated number of events during mobsim run. An optional optimization hint for the framework. -->
		<param name="estimatedNumberOfEvents" value="null" />
		<!-- Size of the events Queue. Increase for very large scenarios -->
		<param name="eventsQueueSize" value="131072" />
		<!-- Number of threads for parallel events handler. _null_ means the framework decides by itself. 0 is currently not possible. -->
		<param name="numberOfThreads" value="null" />
		<!-- If enabled, each event handler is assigned to its own thread. Note that enabling this feature disabled the numberOfThreads option! This feature is still experimental! -->
		<param name="oneThreadPerHandler" value="false" />
		<!-- If enabled, it is ensured that all events that are created during a time step of the mobility simulation are processed before the next time step is simulated. E.g. neccessary when within-day replanning is used. -->
		<param name="synchronizeOnSimSteps" value="true" />
	</module>
	<module name="planCalcScore" >
		<!-- logit model scale parameter. default: 1.  Has name and default value for historical reasons (see Bryan Raney's phd thesis). -->
		<param name="BrainExpBeta" value="1.0" />
		<param name="PathSizeLogitBeta" value="1.0" />
		<!-- fraction of iterations at which MSA score averaging is started. The matsim theory department suggests to use this together with switching off choice set innovation (where a similar switch exists), but it has not been tested yet. -->
		<param name="fractionOfIterationsToStartScoreMSA" value="null" />
		<!-- new_score = (1-learningRate)*old_score + learningRate * score_from_mobsim.  learning rates close to zero emulate score averaging, but slow down initial convergence -->
		<param name="learningRate" value="1.0" />
		<!-- There used to be a plateau between duration=0 and duration=zeroUtilityDuration. This caused durations to evolve to zero once they were below zeroUtilityDuration, causing problems.  Only use this switch if you need to be backwards compatible with some old results.  (changed nov'13) -->
		<param name="usingOldScoringBelowZeroUtilityDuration" value="false" />
		<!-- write a plans file in each iteration directory which contains what each agent actually did, and the score it received. -->
		<param name="writeExperiencedPlans" value="false" />
		<parameterset type="scoringParameters" >
			<param name="earlyDeparture" value="-0.0" />
			<param name="lateArrival" value="-18.0" />
			<param name="marginalUtilityOfMoney" value="1.0" />
			<param name="performing" value="6.0" />
			<param name="subpopulation" value="null" />
			<param name="utilityOfLineSwitch" value="-1.0" />
			<param name="waiting" value="-0.0" />
			<param name="waitingPt" value="-1.0" />
			<parameterset type="activityParams" >
				<param name="activityType" value="dummy" />
				<param name="closingTime" value="undefined" />
				<param name="earliestEndTime" value="undefined" />
				<param name="latestStartTime" value="undefined" />
				<param name="minimalDuration" value="undefined" />
				<param name="openingTime" value="undefined" />
				<param name="priority" value="1.0" />
				<param name="scoringThisActivityAtAll" value="true" />
				<!-- typical duration of activity.  needs to be defined and non-zero.  in sec. -->
				<param name="typicalDuration" value="12:00:00" />
				<!-- method to compute score at typical duration.  Options: | uniform | relative | Use uniform for backwards compatibility (all activities same score; higher proba to drop long acts). -->
				<param name="typicalDurationScoreComputation" value="relative" />
			</parameterset>
			<parameterset type="modeParams" >
				<!-- [utils] alternative-specific constant.  Normally per trip, but that is probably buggy for multi-leg trips. -->
				<param name="constant" value="0.0" />
				<!-- [money] daily monetary constant. default=0 to be backwards compatible -->
				<param name="dailyMonetaryConstant" value="0.0" />
				<!-- [utils] daily utility constant. default=0 to be backwards compatible -->
				<param name="dailyUtilityConstant" value="0.0" />
				<!-- [utils/m] utility of traveling (e.g. walking or driving) per m, normally negative.  this is on top of the time (dis)utility. -->
				<param name="marginalUtilityOfDistance_util_m" value="-10.0" />
				<!-- [utils/hr] additional marginal utility of traveling.  normally negative.  this comes on top of the opportunity cost of time -->
				<param name="marginalUtilityOfTraveling_util_hr" value="-6.0" />
				<param name="mode" value="car" />
				<!-- [unit_of_money/m] conversion of distance into money. Normally negative. -->
				<param name="monetaryDistanceRate" value="0.0" />
			</parameterset>
			<parameterset type="modeParams" >
				<param name="constant" value="0.0" />
				<param name="dailyMonetaryConstant" value="0.0" />
				<param name="dailyUtilityConstant" value="0.0" />
				<param name="marginalUtilityOfDistance_util_m" value="0.0" />
				<param name="marginalUtilityOfTraveling_util_hr" value="0.0" />
				<param name="mode" value="pt" />
				<param name="monetaryDistanceRate" value="0.0" />
			</parameterset>
			<parameterset type="modeParams" >
				<param name="constant" value="0.0" />
				<param name="dailyMonetaryConstant" value="0.0" />
				<param name="dailyUtilityConstant" value="0.0" />
				<param name="marginalUtilityOfDistance_util_m" value="-5.0" />
				<param name="marginalUtilityOfTraveling_util_hr" value="-6.0" />
				<param name="mode" value="walk" />
				<param name="monetaryDistanceRate" value="0.0" />
			</parameterset>
			<parameterset type="modeParams" >
				<param name="constant" value="0.0" />
				<param name="dailyMonetaryConstant" value="0.0" />
				<param name="dailyUtilityConstant" value="0.0" />
				<param name="marginalUtilityOfDistance_util_m" value="-5.0" />
				<param name="marginalUtilityOfTraveling_util_hr" value="-5.0" />
				<param name="mode" value="drt" />
				<param name="monetaryDistanceRate" value="0.0" />
			</parameterset>
		</parameterset>
	</module>
	<module name="plans" >
		<!-- String: minOfDurationAndEndTime tryEndTimeThenDuration endTimeOnly. Anything besides minOfDurationAndEndTime will internally use a different (simpler) version of the TimeAllocationMutator. -->
		<param name="activityDurationInterpretation" value="tryEndTimeThenDuration" />
		<!-- Possible values: reject, useMainModeIdentifier -->
		<param name="handlingOfPlansWithoutRoutingMode" value="reject" />
		<!-- The Coordinates Reference System in which the coordinates are expressed in the input file. At import, the coordinates will be converted to the coordinate system defined in "global", and willbe converted back at export. If not specified, no conversion happens. -->
		<param name="inputCRS" value="null" />
		<param name="inputPersonAttributesFile" value="null" />
		<param name="inputPlansFile" value="population.xml" />
		<param name="insistingOnUsingDeprecatedPersonAttributeFile" value="false" />
		<!-- Defines how routes are stored in memory. Currently supported: LinkNetworkRoute, CompressedNetworkRoute. -->
		<param name="networkRouteType" value="LinkNetworkRoute" />
		<!-- (not tested) will remove plan attributes that are presumably not used, such as activityStartTime. default=false. Use with Caution! -->
		<param name="removingUnnecessaryPlanAttributes" value="false" />
	</module>
	<module name="planscalcroute" >
		<!-- Some typical teleportation routing params are set by default, such as for walk and bike.  Setting this switch to "true" will clear them.  Note that this will also clear settings for helper modes such as for non_network_walk -->
		<param name="clearDefaultTeleportedModeParams" value="false" />
		<!-- All the modes for which the router is supposed to generate network routes (like car) -->
		<param name="networkModes" value="car" />
		<!-- strength of the randomness for the utility of money in routing under toll.  Leads to Pareto-optimal route with randomly drawn money-vs-other-attributes tradeoff. Technically the width parameter of a log-normal distribution. 3.0 seems to be a good value.  -->
		<param name="routingRandomness" value="3.0" />
		<parameterset type="teleportedModeParameters" >
			<param name="beelineDistanceFactor" value="1.3" />
			<param name="mode" value="walk" />
			<!-- Free-speed factor for a teleported mode. Travel time = teleportedModeFreespeedFactor * <freespeed car travel time>. Insert a line like this for every such mode. Please do not set teleportedModeFreespeedFactor as well as teleportedModeSpeed for the same mode, but if you do, +teleportedModeFreespeedFactor wins over teleportedModeSpeed. -->
			<param name="teleportedModeFreespeedFactor" value="null" />
			<!-- Speed for a teleported mode. Travel time = (<beeline distance> * beelineDistanceFactor) / teleportedModeSpeed. Insert a line like this for every such mode. -->
			<param name="teleportedModeSpeed" value="0.8333333333333333" />
		</parameterset>
	</module>
	<module name="ptCounts" >
		<!-- factor by which to re-scale the simulated values.  necessary when simulation runs with something different from 100%.  needs to be adapted manually -->
		<param name="countsScaleFactor" value="1.0" />
		<!-- distance to distanceFilterCenterNode to include counting stations. The unit of distance is the Euclidean distance implied by the coordinate system -->
		<param name="distanceFilter" value="null" />
		<!-- node id for center node of distance filter -->
		<param name="distanceFilterCenterNode" value="null" />
		<!-- input file containing the alighting (getting off) counts for pt -->
		<param name="inputAlightCountsFile" value="null" />
		<!-- input file containing the boarding (getting on) counts for pt -->
		<param name="inputBoardCountsFile" value="null" />
		<!-- input file containing the occupancy counts for pt -->
		<param name="inputOccupancyCountsFile" value="null" />
		<!-- possible values: `html', `kml', `txt', `all' -->
		<param name="outputformat" value="null" />
		<!-- every how many iterations (starting with 0) counts comparisons are generated -->
		<param name="ptCountsInterval" value="10" />
	</module>
	<module name="qsim" >
		<param name="endTime" value="26:00:00" />
		<param name="flowCapacityFactor" value="1.0" />
		<!-- decides if waiting vehicles enter the network after or before the already driving vehicles were moved. Default: false -->
		<param name="insertingWaitingVehiclesBeforeDrivingVehicles" value="true" />
		<!-- If link dynamics is set as SeepageQ, set to false if all seep modes should perform seepage. Default is true (better option). -->
		<param name="isRestrictingSeepage" value="true" />
		<!-- If link dynamics is set as SeepageQ, set to true if seep mode do not consumes any space on the link. Default is false. -->
		<param name="isSeepModeStorageFree" value="false" />
		<!-- default: FIFO; options: FIFO PassingQ SeepageQ -->
		<param name="linkDynamics" value="FIFO" />
		<!-- The (initial) width of the links of the network. Use positive floating point values. This is used only for visualisation. -->
		<param name="linkWidth" value="30.0" />
		<!-- [comma-separated list] Defines which modes are congested modes. Technically, these are the modes that the departure handler of the netsimengine handles.  Effective cell size, effective lane width, flow capacity factor, and storage capacity factor need to be set with diligence.  Need to be vehicular modes to make sense. -->
		<param name="mainMode" value="car" />
		<!-- Shortens a link in the visualization, i.e. its start and end point are moved into towards the center. Does not affect traffic flow.  -->
		<param name="nodeOffset" value="0.0" />
		<!-- Number of threads used for the QSim.  Note that this setting is independent from the "global" threads setting.  In contrast to earlier versions, the non-parallel special version is no longer there. -->
		<param name="numberOfThreads" value="1" />
		<!-- Boolean. `true': stuck vehicles are removed, aborting the plan; `false': stuck vehicles are forced into the next link. `false' is probably the better choice. -->
		<param name="removeStuckVehicles" value="false" />
		<!-- If link dynamics is set as SeepageQ, set a seep mode. Default is bike. -->
		<param name="seepMode" value="bike" />
		<!-- Possible values: minOfEndtimeAndMobsimFinished, onlyUseEndtime -->
		<param name="simEndtimeInterpretation" value="minOfEndtimeAndMobsimFinished" />
		<!-- Options: maxOfStarttimeAndEarliestActivityEnd onlyUseStarttime  -->
		<param name="simStarttimeInterpretation" value="onlyUseStarttime" />
		<!-- snapshotStyle. One of: equiDist queue withHoles withHolesAndShowHoles kinematicWaves  -->
		<param name="snapshotStyle" value="equiDist" />
		<param name="snapshotperiod" value="00:00:00" />
		<param name="startTime" value="00:00:00" />
		<param name="storageCapacityFactor" value="1.0" />
		<!-- time in seconds.  Time after which the frontmost vehicle on a link is called `stuck' if it does not move. -->
		<param name="stuckTime" value="10.0" />
		<param name="timeStepSize" value="00:00:01" />
		<!-- options: queue withHoles kinematicWaves  -->
		<param name="trafficDynamics" value="queue" />
		<!-- Set this parameter to true if lanes should be used, false if not. -->
		<param name="useLanes" value="false" />
		<!-- If a route does not reference a vehicle, agents will use the vehicle with the same id as their own. -->
		<param name="usePersonIdForMissingVehicleId" value="true" />
		<!-- If false, the qsim accumulates fractional flows up to one flow unit in every time step.  If true, flows are updated only if an agent wants to enter the link or an agent is added to buffer. Default is true. -->
		<param name="usingFastCapacityUpdate" value="true" />
		<!-- Defines what happens if an agent wants to depart, but the specified vehicle is not available. One of: teleport wait exception  -->
		<param name="vehicleBehavior" value="teleport" />
		<!-- If vehicles should all be the same default vehicle, or come from the vehicles file, or something else.  Possible values:  defaultVehicle modeVehicleTypesFromVehiclesData fromVehiclesData -->
		<param name="vehiclesSource" value="defaultVehicle" />
	</module>
	<module name="strategy" >
		<!-- the external executable will be called with a config file as argument.  This is the pathname to a possible skeleton config, to which additional information will be added.  Can be null. -->
		<param name="ExternalExeConfigTemplate" value="null" />
		<!-- time out value (in seconds) after which matsim will consider the external strategy as failed -->
		<param name="ExternalExeTimeOut" value="3600" />
		<!-- root directory for temporary files generated by the external executable. Provided as a service; I don't think this is used by MATSim. -->
		<param name="ExternalExeTmpFileRootDir" value="null" />
		<!-- fraction of iterations where innovative strategies are switched off.  Something like 0.8 should be good.  E.g. if you run from iteration 400 to iteration 500, innovation is switched off at iteration 480 -->
		<param name="fractionOfIterationsToDisableInnovation" value="Infinity" />
		<!-- maximum number of plans per agent.  ``0'' means ``infinity''.  Currently (2010), ``5'' is a good number -->
		<param name="maxAgentPlanMemorySize" value="3" />
		<!-- strategyName of PlanSelector for plans removal.  Possible defaults: WorstPlanSelector SelectRandom SelectExpBetaForRemoval ChangeExpBetaForRemoval PathSizeLogitSelectorForRemoval . The current default, WorstPlanSelector is not a good choice from a discrete choice theoretical perspective. Alternatives, however, have not been systematically tested. kai, feb'12 -->
		<param name="planSelectorForRemoval" value="WorstPlanSelector" />
		<parameterset type="strategysettings" >
			<!-- iteration after which strategy will be disabled.  most useful for ``innovative'' strategies (new routes, new times, ...). Normally, better use fractionOfIterationsToDisableInnovation -->
			<param name="disableAfterIteration" value="-1" />
			<!-- path to external executable (if applicable) -->
			<param name="executionPath" value="null" />
			<!-- strategyName of strategy.  Possible default names: SelectRandom BestScore KeepLastSelected ChangeExpBeta SelectExpBeta SelectPathSizeLogit      (selectors), ReRouteTimeAllocationMutatorTimeAllocationMutator_ReRouteChangeSingleTripModeChangeTripModeSubtourModeChoice (innovative strategies). -->
			<param name="strategyName" value="ChangeSingleTripMode" />
			<!-- subpopulation to which the strategy applies. "null" refers to the default population, that is, the set of persons for which no explicit subpopulation is defined (ie no subpopulation attribute) -->
			<param name="subpopulation" value="null" />
			<!-- weight of a strategy: for each agent, a strategy will be selected with a probability proportional to its weight -->
			<param name="weight" value="0.1" />
		</parameterset>
		<parameterset type="strategysettings" >
			<param name="disableAfterIteration" value="-1" />
			<param name="executionPath" value="null" />
			<param name="strategyName" value="BestScore" />
			<param name="subpopulation" value="null" />
			<param name="weight" value="0.9" />
		</parameterset>
	</module>
	<module name="subtourModeChoice" >
		<!-- Only for backwards compatibility.  Defines if only trips from modes list should change mode, or all trips.  Options: fromAllModesToSpecifiedModes fromSpecifiedModesToSpecifiedModes  -->
		<param name="behavior" value="fromSpecifiedModesToSpecifiedModes" />
		<!-- Defines the chain-based modes, seperated by commas -->
		<param name="chainBasedModes" value="" />
		<!-- Defines whether car availability must be considered or not. A agent has no car only if it has no license, or never access to a car -->
		<param name="considerCarAvailability" value="true" />
		<!-- Defines all the modes available, including chain-based modes, seperated by commas -->
		<param name="modes" value="pt,drt" />
	</module>
	<module name="swissRailRaptor" >
		<!-- Sets whether intermodal access and egress modes are selected by least cost (default) or randomly chosen out of the available access / egress modes. -->
		<param name="intermodalAccessEgressModeSelection" value="CalcLeastCostModePerStop" />
		<!-- Possible values: Default, Individual -->
		<param name="scoringParameters" value="Default" />
		<param name="transferPenaltyBaseCost" value="0.0" />
		<param name="transferPenaltyCostPerTravelTimeHour" value="0.0" />
		<param name="transferPenaltyMaxCost" value="Infinity" />
		<param name="transferPenaltyMinCost" value="-Infinity" />
		<!-- time deducted from transfer walk leg during transfers between pt legs in order to avoid missing a vehicle by a few seconds due to delays. -->
		<param name="transferWalkMargin" value="5.0" />
		<!-- If true, SwissRailRaptor tries to detect when agents cannot board a vehicle in the previous iteration because it is already full and tries to find an alternative route instead. -->
		<param name="useCapacityConstraints" value="false" />
		<param name="useIntermodalAccessEgress" value="true" />
		<param name="useModeMappingForPassengers" value="false" />
		<param name="useRangeQuery" value="false" />
		<parameterset type="intermodalAccessEgress" >
			<!-- Radius from the origin / destination coord in which transit stops are searched. Only if less than 2 transit stops are found the search radius is increased step-wise until the maximum search radius set in param radius is reached. -->
			<param name="initialSearchRadius" value="500.0" />
			<!-- If the mode is routed on the network, specify which linkId acts as access link to this stop in the transport modes sub-network. -->
			<param name="linkIdAttribute" value="null" />
			<!-- Radius from the origin / destination coord in which transit stops are accessible by this mode. -->
			<param name="maxRadius" value="1000.0" />
			<param name="mode" value="walk" />
			<!-- Name of the person attribute used to figure out if this access/egress mode is available to the person. -->
			<param name="personFilterAttribute" value="null" />
			<!-- Only persons where the filter attribute has the value specified here can use this mode for access or egress. The attribute should be of type String. -->
			<param name="personFilterValue" value="null" />
			<!-- If less than 2 stops were found in initialSearchRadius take the distance of the closest transit stop and add this extension radius to search again.The search radius will not exceed the maximum search radius set in param radius. -->
			<param name="searchExtensionRadius" value="100.0" />
			<!-- Name of the transit stop attribute used to filter stops that should be included in the set of potential stops for access and egress. The attribute should be of type String. 'null' disables the filter and all stops within the specified radius will be used. -->
			<param name="stopFilterAttribute" value="null" />
			<!-- Only stops where the filter attribute has the value specified here will be considered as access or egress stops. -->
			<param name="stopFilterValue" value="null" />
		</parameterset>
	</module>
	<module name="transit" >
		<!-- The Coordinates Reference System in which the coordinates are expressed in the input file. At import, the coordinates will be converted to the coordinate system defined in "global", and willbe converted back at export. If not specified, no conversion happens. -->
		<param name="inputScheduleCRS" value="null" />
		<param name="insistingOnUsingDeprecatedAttributeFiles" value="false" />
		<!-- Optional input file containing additional attributes for transit lines, stored as ObjectAttributes. -->
		<param name="transitLinesAttributesFile" value="null" />
		<!-- Comma-separated list of transportation modes that are handled as transit. Defaults to 'pt'. -->
		<param name="transitModes" value="pt" />
		<!-- Input file containing the transit schedule to be simulated. -->
		<param name="transitScheduleFile" value="transitSchedule.xml" />
		<!-- Optional input file containing additional attributes for transit stop facilities, stored as ObjectAttributes. -->
		<param name="transitStopsAttributesFile" value="null" />
		<!-- Set this parameter to true if transit should be simulated, false if not. -->
		<param name="useTransit" value="true" />
		<param name="usingTransitInMobsim" value="true" />
		<!-- Input file containing the vehicles used by the departures in the transit schedule. -->
		<param name="vehiclesFile" value="transitVehicles.xml" />
	</module>
	<module name="transitRouter" >
		<!-- additional time the router allocates when a line switch happens. Can be interpreted as a 'safety' time that agents need to safely transfer from one line to another -->
		<param name="additionalTransferTime" value="0.0" />
		<!-- Factor with which direct walk generalized cost is multiplied before it is compared to the pt generalized cost.  Set to a very high value to reduce direct walk results. -->
		<param name="directWalkFactor" value="1.0" />
		<!-- step size to increase searchRadius if no stops are found -->
		<param name="extensionRadius" value="200.0" />
		<!-- maximum beeline distance between stops that agents could transfer to by walking -->
		<param name="maxBeelineWalkConnectionDistance" value="100.0" />
		<!-- the radius in which stop locations are searched, given a start or target coordinate -->
		<param name="searchRadius" value="1000.0" />
	</module>
	<module name="travelTimeCalculator" >
		<!-- (only for backwards compatibility; only used if separateModes==false && + filterModes==true)  Transport modes that will be respected by the travel time collector. 'car' is default which includes also buses from the pt simulation module. -->
		<param name="analyzedModes" value="car" />
		<param name="calculateLinkToLinkTravelTimes" value="false" />
		<param name="calculateLinkTravelTimes" value="true" />
		<!-- (only for backwards compatiblity; only used if separateModes==false)  Only modes included in analyzedModes are included. -->
		<param name="filterModes" value="false" />
		<!-- The lenght (in sec) of the time period that is splited into time bins; an additional time bin is created to aggregate all travel times collected after maxTime -->
		<param name="maxTime" value="108000" />
		<!-- (only for backwards compatibility) If false, link travel times are measured and aggregated over all vehicles using the link. -->
		<param name="separateModes" value="true" />
		<!-- How to deal with congested time bins that have no link entry events. `optimistic' assumes free speed (too optimistic); 'experimental_LastMile' is experimental and probably too pessimistic. -->
		<param name="travelTimeAggregator" value="optimistic" />
		<!-- The size of the time bin (in sec) into which the link travel times are aggregated for the router -->
		<param name="travelTimeBinSize" value="900" />
		<!-- possible values: TravelTimeCalculatorArray TravelTimeCalculatorHashMap  -->
		<param name="travelTimeCalculator" value="TravelTimeCalculatorArray" />
		<!-- How to deal with link entry times at different positions during the time bin. Currently supported: average, linearinterpolation -->
		<param name="travelTimeGetter" value="average" />
	</module>
	<module name="vehicles" >
		<param name="vehiclesFile" value="null" />
	</module>
	<module name="vspExperimental" >
		<!-- (do not use except of you have to) There was a problem with pt interaction scoring.  Some people solved it by overwriting the parameters of the pt interaction activity type.  Doing this now throws an Exception.  If you still insist on doing this, set the following to true. -->
		<param name="isAbleToOverwritePtInteractionParams" value="false" />
		<param name="isGeneratingBoardingDeniedEvent" value="false" />
		<!-- if an approximation of the opportunity cost of time is included into the radius calculation for location choice.`true' will be faster, but it is an approximation.  Default is `true'; `false' is available for backwards compatibility. -->
		<param name="isUsingOpportunityCostOfTimeForLocationChoice" value="true" />
		<param name="logitScaleParamForPlansRemoval" value="1.0" />
		<!-- Options: | ignore | info | warn | abort | .  When violating VSP defaults, this results in nothing, logfile infos, logfile warnings, or aborts.  Members of VSP should use `abort' or talk to kai. -->
		<param name="vspDefaultsCheckingLevel" value="ignore" />
		<!-- if true then writes output_events in output directory.  default is `false'. Will only work when lastIteration is multiple of events writing interval -->
		<param name="writingOutputEvents" value="true" />
	</module>

</config>

2020-10-22T10:45:17,654  INFO ControlerUtils:84 Complete config dump done.
2020-10-22T10:45:17,654  INFO ControlerUtils:85 Checking consistency of config...
2020-10-22T10:45:17,654  WARN DrtConfigGroup:262 qsim.endTime should be specified and qsim.simEndtimeInterpretation should be 'onlyUseEndtime' if postponed request rejection is allowed. Otherwise, rejected passengers (who are stuck endlessly waiting for a DRT vehicle) will prevent QSim from stopping. Keep also in mind that not setting an end time may result in agents attempting to travel without vehicles being available.
2020-10-22T10:45:17,655  INFO PlanCalcScoreConfigGroup$ScoringParameterSet:1528 NO OPENING OR CLOSING TIMES DEFINED!

There is no activity type that has an opening *and* closing time (or opening time and late penalty) defined.
This usually means that the activity chains can be shifted by an arbitrary
number of hours without having an effect on the score of the plans, and thus
resulting in wrong results / traffic patterns.
If you are using MATSim without time adaptation, you can ignore this warning.


2020-10-22T10:45:17,656  INFO VspConfigConsistencyCheckerImpl:59 NOT running vsp config consistency check because vsp defaults checking level is set to IGNORE
2020-10-22T10:45:17,700  INFO ControlerUtils:87 Checking consistency of config done.
2020-10-22T10:45:17,700  INFO PrepareForSimImpl:115 Network seems to be multimodal. Create car-only network which is handed over to PersonPrepareForSim.
2020-10-22T10:45:17,701  INFO NetworkImpl:163  node # 1
2020-10-22T10:45:17,701  INFO NetworkImpl:163  node # 4
2020-10-22T10:45:17,701  INFO NetworkImpl:163  node # 16
2020-10-22T10:45:17,701  INFO NetworkImpl:163  node # 64
2020-10-22T10:45:17,702  INFO NetworkImpl:163  node # 256
2020-10-22T10:45:17,703  INFO NetworkImpl:163  node # 1024
2020-10-22T10:45:17,708  INFO NetworkImpl:163  node # 4096
2020-10-22T10:45:17,715  INFO NetworkImpl:159  link # 1
2020-10-22T10:45:17,715  INFO NetworkImpl:159  link # 4
2020-10-22T10:45:17,716  INFO NetworkImpl:159  link # 16
2020-10-22T10:45:17,716  INFO NetworkImpl:159  link # 64
2020-10-22T10:45:17,717  INFO NetworkImpl:159  link # 256
2020-10-22T10:45:17,720  INFO NetworkImpl:159  link # 1024
2020-10-22T10:45:17,729  INFO NetworkImpl:159  link # 4096
2020-10-22T10:45:17,766  INFO NetworkImpl:159  link # 16384
2020-10-22T10:45:17,909  INFO NetworkImpl:159  link # 65536
2020-10-22T10:45:17,931  WARN PrepareForSimImpl:222 'usePersonIdForMissingVehicleId' is deprecated. It will be removed soon.
2020-10-22T10:45:17,932  INFO Counter:69 [VehiclesImpl] added vehicle # 1
2020-10-22T10:45:17,932  INFO Counter:69 [VehiclesImpl] added vehicle # 2
2020-10-22T10:45:17,932  INFO Counter:69 [VehiclesImpl] added vehicle # 4
2020-10-22T10:45:17,932  INFO Counter:69 [VehiclesImpl] added vehicle # 8
2020-10-22T10:45:17,932  INFO Counter:69 [VehiclesImpl] added vehicle # 16
2020-10-22T10:45:17,933  INFO Counter:69 [VehiclesImpl] added vehicle # 32
2020-10-22T10:45:17,934  INFO Counter:69 [VehiclesImpl] added vehicle # 64
2020-10-22T10:45:17,935  INFO Counter:69 [VehiclesImpl] added vehicle # 128
2020-10-22T10:45:17,937  INFO Counter:69 [VehiclesImpl] added vehicle # 256
2020-10-22T10:45:17,941  INFO Counter:69 [VehiclesImpl] added vehicle # 512
2020-10-22T10:45:17,947  INFO Counter:69 [VehiclesImpl] added vehicle # 1024
2020-10-22T10:45:17,957  INFO Counter:69 [VehiclesImpl] added vehicle # 2048
2020-10-22T10:45:17,976  INFO Counter:69 [VehiclesImpl] added vehicle # 4096
2020-10-22T10:45:17,999  INFO Counter:69 [VehiclesImpl] added vehicle # 8192
2020-10-22T10:45:18,026  INFO Counter:69 [VehiclesImpl] added vehicle # 16384
2020-10-22T10:45:18,079  INFO Counter:69 [VehiclesImpl] added vehicle # 32768
2020-10-22T10:45:18,165  INFO Counter:69 [VehiclesImpl] added vehicle # 65536
2020-10-22T10:45:18,458  INFO EventsManagerImpl:160 adding Event-Handler: ch.sbb.matsim.routing.pt.raptor.SwissRailRaptorFactory$$Lambda$209/0x000000010048e840
2020-10-22T10:45:18,458  INFO EventsManagerImpl:166   org.matsim.pt.router.TransitScheduleChangedEventHandler
2020-10-22T10:45:18,458  INFO EventsManagerImpl:227     > org.matsim.pt.router.TransitScheduleChangedEvent
2020-10-22T10:45:18,458  INFO EventsManagerImpl:176 
2020-10-22T10:45:18,458  INFO EventsManagerImpl:160 adding Event-Handler: ch.sbb.matsim.routing.pt.raptor.SwissRailRaptorFactory$$Lambda$209/0x000000010048e840
2020-10-22T10:45:18,458  INFO EventsManagerImpl:166   org.matsim.pt.router.TransitScheduleChangedEventHandler
2020-10-22T10:45:18,458  INFO EventsManagerImpl:227     > org.matsim.pt.router.TransitScheduleChangedEvent
2020-10-22T10:45:18,459  INFO EventsManagerImpl:176 
2020-10-22T10:45:18,459  INFO SwissRailRaptorData:84 Preparing data for SwissRailRaptor...
2020-10-22T10:45:18,515  INFO SwissRailRaptorData:211 SwissRailRaptor data preparation done. Took 0 seconds.
2020-10-22T10:45:18,515  INFO SwissRailRaptorData:212 SwissRailRaptor statistics:  #routes = 40
2020-10-22T10:45:18,516  INFO SwissRailRaptorData:213 SwissRailRaptor statistics:  #departures = 2080
2020-10-22T10:45:18,516  INFO SwissRailRaptorData:214 SwissRailRaptor statistics:  #routeStops = 760
2020-10-22T10:45:18,516  INFO SwissRailRaptorData:215 SwissRailRaptor statistics:  #stopFacilities = 400
2020-10-22T10:45:18,516  INFO SwissRailRaptorData:216 SwissRailRaptor statistics:  #transfers (between routeStops) = 2912
2020-10-22T10:45:18,527  INFO NetworkImpl:163  node # 1
2020-10-22T10:45:18,527  INFO NetworkImpl:163  node # 4
2020-10-22T10:45:18,527  INFO NetworkImpl:163  node # 16
2020-10-22T10:45:18,527  INFO NetworkImpl:163  node # 64
2020-10-22T10:45:18,527  INFO NetworkImpl:163  node # 256
2020-10-22T10:45:18,528  INFO NetworkImpl:163  node # 1024
2020-10-22T10:45:18,528  INFO NetworkImpl:163  node # 4096
2020-10-22T10:45:18,529  INFO NetworkImpl:159  link # 1
2020-10-22T10:45:18,530  INFO NetworkImpl:159  link # 4
2020-10-22T10:45:18,530  INFO NetworkImpl:159  link # 16
2020-10-22T10:45:18,530  INFO NetworkImpl:159  link # 64
2020-10-22T10:45:18,531  INFO NetworkImpl:159  link # 256
2020-10-22T10:45:18,532  INFO NetworkImpl:159  link # 1024
2020-10-22T10:45:18,537  INFO NetworkImpl:159  link # 4096
2020-10-22T10:45:18,554  INFO NetworkImpl:159  link # 16384
2020-10-22T10:45:18,623  INFO NetworkImpl:159  link # 65536
2020-10-22T10:45:18,646  WARN RandomizingTimeDistanceTravelDisutilityFactory:112 There will be no routing randomness. The randomization of the travel disutility requires the monetary distance rate to be different than zero. Continuing anyway.
2020-10-22T10:45:18,647  WARN RandomizingTimeDistanceTravelDisutilityFactory:117 There will be no routing randomness. The randomization of the travel disutility requires the travel time cost rate to be different than zero. Continuing anyway.
2020-10-22T10:45:18,648  INFO RandomizingTimeDistanceTravelDisutilityFactory:85  sigma: 3.0; resulting normalization: 0.011108996538242306
2020-10-22T10:45:18,702  INFO PreProcessDijkstra:118 nodes in dead ends: 0 (total nodes: 10601). Done in 48 ms
2020-10-22T10:45:18,742  INFO PreProcessLandmarks:112 Putting landmarks on network...
2020-10-22T10:45:18,748  INFO LandmarkerPieSlices:96 Filling sectors...
2020-10-22T10:45:18,784  INFO LandmarkerPieSlices:107 Refining landmarks...
2020-10-22T10:45:18,787  INFO LandmarkerPieSlices:109 done
2020-10-22T10:45:18,787  INFO PreProcessLandmarks:115 done in 45 ms
2020-10-22T10:45:18,787  INFO PreProcessLandmarks:117 Initializing landmarks data
2020-10-22T10:45:18,796  INFO PreProcessLandmarks:129 Calculating distance from each node to each of the 16 landmarks using 4 threads...
2020-10-22T10:45:18,821  INFO PreProcessLandmarks:139 wait for landmarks Calculator to finish...
2020-10-22T10:45:19,186  INFO PreProcessLandmarks:163 done in 389 ms
2020-10-22T10:45:19,226  INFO RandomizingTimeDistanceTravelDisutilityFactory:85  sigma: 3.0; resulting normalization: 0.011108996538242306
2020-10-22T10:45:19,238  INFO RandomizingTimeDistanceTravelDisutilityFactory:85  sigma: 3.0; resulting normalization: 0.011108996538242306
2020-10-22T10:45:19,247  INFO RandomizingTimeDistanceTravelDisutilityFactory:85  sigma: 3.0; resulting normalization: 0.011108996538242306
2020-10-22T10:45:19,281  INFO NetworkImpl:422 building QuadTree for nodes: xrange(-1.0,10001.0); yrange(-1.0,10001.0)
2020-10-22T10:45:19,301  INFO NetworkImpl:431 Building QuadTree took 0.029 seconds.
2020-10-22T10:45:19,313  INFO Counter:69 [PersonPrepareForSim] handled person # 1
2020-10-22T10:45:19,315  INFO Counter:69 [PersonPrepareForSim] handled person # 2
2020-10-22T10:45:19,317  INFO Counter:69 [PersonPrepareForSim] handled person # 4
2020-10-22T10:45:19,323  INFO Counter:69 [PersonPrepareForSim] handled person # 8
2020-10-22T10:45:19,332  INFO Counter:69 [PersonPrepareForSim] handled person # 16
2020-10-22T10:45:19,343  INFO Counter:69 [PersonPrepareForSim] handled person # 32
2020-10-22T10:45:19,369  INFO Counter:69 [PersonPrepareForSim] handled person # 64
2020-10-22T10:45:19,453  INFO Counter:69 [PersonPrepareForSim] handled person # 128
2020-10-22T10:45:19,476  INFO Counter:69 [PersonPrepareForSim] handled person # 256
2020-10-22T10:45:19,542  INFO Counter:69 [PersonPrepareForSim] handled person # 512
2020-10-22T10:45:19,616  INFO Counter:69 [PersonPrepareForSim] handled person # 1024
2020-10-22T10:45:19,753  INFO Counter:69 [PersonPrepareForSim] handled person # 2048
2020-10-22T10:45:19,928  INFO Counter:69 [PersonPrepareForSim] handled person # 4096
2020-10-22T10:45:20,171  INFO Counter:69 [PersonPrepareForSim] handled person # 8192
2020-10-22T10:45:20,582  INFO Counter:69 [PersonPrepareForSim] handled person # 16384
2020-10-22T10:45:21,535  INFO Counter:69 [PersonPrepareForSim] handled person # 32768
2020-10-22T10:45:22,846  INFO Counter:69 [PersonPrepareForSim] handled person # 65536
2020-10-22T10:45:24,020  INFO Counter:74 [PersonPrepareForSim] handled person # 100000
2020-10-22T10:45:24,046  INFO AbstractController:125 ###################################################
2020-10-22T10:45:24,047  INFO AbstractController:126 ### ITERATION 0 BEGINS
2020-10-22T10:45:24,048  INFO ControlerListenerManagerImpl:145 calling notifyIterationStarts on org.matsim.analysis.LegHistogramListener
2020-10-22T10:45:24,048  INFO ControlerListenerManagerImpl:145 calling notifyIterationStarts on org.matsim.analysis.LinkStatsControlerListener
2020-10-22T10:45:24,048  INFO ControlerListenerManagerImpl:145 calling notifyIterationStarts on org.matsim.core.replanning.ReplanningContextImpl
2020-10-22T10:45:24,048  INFO ControlerListenerManagerImpl:145 calling notifyIterationStarts on org.matsim.core.scoring.ScoringFunctionsForPopulation$1
2020-10-22T10:45:24,284  INFO ControlerListenerManagerImpl:145 calling notifyIterationStarts on org.matsim.core.scoring.ExperiencedPlansServiceImpl$1
2020-10-22T10:45:24,302  INFO ControlerListenerManagerImpl:148 [it.0] all ControlerIterationStartsListeners called.
2020-10-22T10:45:24,303  INFO ControlerListenerManagerImpl:224 calling notifyBeforeMobsim on org.matsim.core.controler.corelisteners.EventsHandlingImpl
2020-10-22T10:45:24,303  INFO EventsManagerImpl:190 resetting Event-Handlers
2020-10-22T10:45:24,304  INFO EventsManagerImpl:197   org.matsim.core.trafficmonitoring.TravelTimeCalculator
2020-10-22T10:45:24,304  INFO EventsManagerImpl:197   org.matsim.core.scoring.EventsToLegsAndActivities
2020-10-22T10:45:24,304  INFO EventsManagerImpl:197   org.matsim.analysis.VolumesAnalyzer
2020-10-22T10:45:24,304  INFO EventsManagerImpl:197   org.matsim.core.scoring.ScoringFunctionsForPopulation
2020-10-22T10:45:24,304  INFO EventsManagerImpl:197   org.matsim.analysis.LegHistogram
2020-10-22T10:45:24,304  INFO EventsManagerImpl:197   org.matsim.analysis.CalcLegTimes
2020-10-22T10:45:24,305  INFO EventsManagerImpl:197   ch.sbb.matsim.routing.pt.raptor.SwissRailRaptorFactory$$Lambda$209/0x000000010048e840
2020-10-22T10:45:24,307  INFO EventsManagerImpl:160 adding Event-Handler: org.matsim.core.events.algorithms.EventWriterXML
2020-10-22T10:45:24,307  INFO EventsManagerImpl:166   org.matsim.core.events.algorithms.EventWriter
2020-10-22T10:45:24,307  INFO EventsManagerImpl:166   org.matsim.core.events.handler.BasicEventHandler
2020-10-22T10:45:24,307  INFO EventsManagerImpl:227     > org.matsim.api.core.v01.events.Event
2020-10-22T10:45:24,307  INFO EventsManagerImpl:176 
2020-10-22T10:45:24,307  INFO EventsManagerImpl:160 adding Event-Handler: org.matsim.core.events.algorithms.EventWriterXML
2020-10-22T10:45:24,307  INFO EventsManagerImpl:166   org.matsim.core.events.algorithms.EventWriter
2020-10-22T10:45:24,307  INFO EventsManagerImpl:166   org.matsim.core.events.handler.BasicEventHandler
2020-10-22T10:45:24,308  INFO EventsManagerImpl:227     > org.matsim.api.core.v01.events.Event
2020-10-22T10:45:24,308  INFO EventsManagerImpl:176 
2020-10-22T10:45:24,308  INFO ControlerListenerManagerImpl:224 calling notifyBeforeMobsim on org.matsim.core.controler.corelisteners.PlansDumpingImpl
2020-10-22T10:45:24,308  INFO PlansDumpingImpl:76 dumping plans...
2020-10-22T10:45:24,382  INFO Counter:69 [PopulationWriter] dumped person # 1
2020-10-22T10:45:24,383  INFO Counter:69 [PopulationWriter] dumped person # 2
2020-10-22T10:45:24,385  INFO Counter:69 [PopulationWriter] dumped person # 4
2020-10-22T10:45:24,389  INFO Counter:69 [PopulationWriter] dumped person # 8
2020-10-22T10:45:24,401  INFO Counter:69 [PopulationWriter] dumped person # 16
2020-10-22T10:45:24,420  INFO Counter:69 [PopulationWriter] dumped person # 32
2020-10-22T10:45:24,446  INFO Counter:69 [PopulationWriter] dumped person # 64
2020-10-22T10:45:24,487  INFO Counter:69 [PopulationWriter] dumped person # 128
2020-10-22T10:45:24,546  INFO Counter:69 [PopulationWriter] dumped person # 256
2020-10-22T10:45:24,633  INFO Counter:69 [PopulationWriter] dumped person # 512
2020-10-22T10:45:24,795  INFO Counter:69 [PopulationWriter] dumped person # 1024
2020-10-22T10:45:25,038  INFO Counter:69 [PopulationWriter] dumped person # 2048
2020-10-22T10:45:25,469  INFO Counter:69 [PopulationWriter] dumped person # 4096
2020-10-22T10:45:26,163  INFO Counter:69 [PopulationWriter] dumped person # 8192
2020-10-22T10:45:27,376  INFO Counter:69 [PopulationWriter] dumped person # 16384
2020-10-22T10:45:29,050  INFO Counter:69 [PopulationWriter] dumped person # 32768
2020-10-22T10:45:32,222  INFO Counter:69 [PopulationWriter] dumped person # 65536
2020-10-22T10:45:35,426  INFO PopulationWriter:144 Population written to: ./output/ITERS/it.0/0.plans.xml.gz
2020-10-22T10:45:35,427  INFO Counter:74 [PopulationWriter] dumped person # 100000
2020-10-22T10:45:35,427  INFO PlansDumpingImpl:93 finished plans dump.
2020-10-22T10:45:35,428  INFO ControlerListenerManagerImpl:229 calling notifyBeforeMobsim on org.matsim.core.population.VspPlansCleaner
2020-10-22T10:45:35,526  INFO ControlerListenerManagerImpl:232 [it.0] all ControlerBeforeMobsimListeners called.
2020-10-22T10:45:35,527  INFO PrepareForMobsimImpl:83 Network seems to be multimodal. Create car-only network which is handed over to PersonPrepareForSim.
2020-10-22T10:45:35,527  INFO NetworkImpl:163  node # 1
2020-10-22T10:45:35,527  INFO NetworkImpl:163  node # 4
2020-10-22T10:45:35,527  INFO NetworkImpl:163  node # 16
2020-10-22T10:45:35,527  INFO NetworkImpl:163  node # 64
2020-10-22T10:45:35,527  INFO NetworkImpl:163  node # 256
2020-10-22T10:45:35,528  INFO NetworkImpl:163  node # 1024
2020-10-22T10:45:35,528  INFO NetworkImpl:163  node # 4096
2020-10-22T10:45:35,529  INFO NetworkImpl:159  link # 1
2020-10-22T10:45:35,529  INFO NetworkImpl:159  link # 4
2020-10-22T10:45:35,529  INFO NetworkImpl:159  link # 16
2020-10-22T10:45:35,529  INFO NetworkImpl:159  link # 64
2020-10-22T10:45:35,529  INFO NetworkImpl:159  link # 256
2020-10-22T10:45:35,531  INFO NetworkImpl:159  link # 1024
2020-10-22T10:45:35,533  INFO NetworkImpl:159  link # 4096
2020-10-22T10:45:35,544  INFO NetworkImpl:159  link # 16384
2020-10-22T10:45:35,584  INFO NetworkImpl:159  link # 65536
2020-10-22T10:45:35,599  INFO RandomizingTimeDistanceTravelDisutilityFactory:85  sigma: 3.0; resulting normalization: 0.011108996538242306
2020-10-22T10:45:35,607  INFO RandomizingTimeDistanceTravelDisutilityFactory:85  sigma: 3.0; resulting normalization: 0.011108996538242306
2020-10-22T10:45:35,616  INFO RandomizingTimeDistanceTravelDisutilityFactory:85  sigma: 3.0; resulting normalization: 0.011108996538242306
2020-10-22T10:45:35,625  INFO RandomizingTimeDistanceTravelDisutilityFactory:85  sigma: 3.0; resulting normalization: 0.011108996538242306
2020-10-22T10:45:35,646  INFO Counter:69 [PersonPrepareForSim] handled person # 1
2020-10-22T10:45:35,646  INFO Counter:69 [PersonPrepareForSim] handled person # 2
2020-10-22T10:45:35,646  INFO Counter:69 [PersonPrepareForSim] handled person # 4
2020-10-22T10:45:35,646  INFO Counter:69 [PersonPrepareForSim] handled person # 8
2020-10-22T10:45:35,646  INFO Counter:69 [PersonPrepareForSim] handled person # 16
2020-10-22T10:45:35,647  INFO Counter:69 [PersonPrepareForSim] handled person # 32
2020-10-22T10:45:35,647  INFO Counter:69 [PersonPrepareForSim] handled person # 64
2020-10-22T10:45:35,647  INFO Counter:69 [PersonPrepareForSim] handled person # 128
2020-10-22T10:45:35,648  INFO Counter:69 [PersonPrepareForSim] handled person # 256
2020-10-22T10:45:35,649  INFO Counter:69 [PersonPrepareForSim] handled person # 512
2020-10-22T10:45:35,654  INFO Counter:69 [PersonPrepareForSim] handled person # 1024
2020-10-22T10:45:35,661  INFO Counter:69 [PersonPrepareForSim] handled person # 2048
2020-10-22T10:45:35,666  INFO Counter:69 [PersonPrepareForSim] handled person # 4096
2020-10-22T10:45:35,675  INFO Counter:69 [PersonPrepareForSim] handled person # 8192
2020-10-22T10:45:35,694  INFO Counter:69 [PersonPrepareForSim] handled person # 16384
2020-10-22T10:45:35,724  INFO Counter:69 [PersonPrepareForSim] handled person # 32768
2020-10-22T10:45:35,790  INFO Counter:69 [PersonPrepareForSim] handled person # 65536
2020-10-22T10:45:35,883  INFO Counter:74 [PersonPrepareForSim] handled person # 100000
2020-10-22T10:45:35,967  INFO MobsimListenerManager:49 calling addQueueSimulationListener
2020-10-22T10:45:35,968  INFO MobsimListenerManager:53   assigned class org.matsim.core.mobsim.framework.listeners.MobsimListener to interface org.matsim.vis.snapshotwriters.SnapshotWriterManager
2020-10-22T10:45:35,968  INFO MobsimListenerManager:53   assigned class org.matsim.core.mobsim.framework.listeners.MobsimListener to interface org.matsim.core.mobsim.framework.listeners.MobsimAfterSimStepListener
2020-10-22T10:45:35,968  INFO MobsimListenerManager:53   assigned class org.matsim.core.mobsim.framework.listeners.MobsimListener to interface org.matsim.core.mobsim.framework.listeners.MobsimListener
2020-10-22T10:45:35,968  INFO MobsimListenerManager:53   assigned class org.matsim.core.mobsim.framework.listeners.MobsimListener to interface org.matsim.core.mobsim.framework.listeners.MobsimInitializedListener
2020-10-22T10:45:35,968  INFO MobsimListenerManager:53   assigned class org.matsim.core.mobsim.framework.listeners.MobsimListener to interface org.matsim.core.mobsim.framework.listeners.MobsimBeforeCleanupListener
2020-10-22T10:45:36,152  INFO QSimProvider:115 Added MobsimEngine class org.matsim.core.mobsim.qsim.ActivityEngineDefaultImpl
2020-10-22T10:45:36,153  INFO QSimProvider:121 Added Activityhandler class org.matsim.core.mobsim.qsim.ActivityEngineDefaultImpl
2020-10-22T10:45:36,153  INFO QSimProvider:127 Added DepartureHandler class org.matsim.core.mobsim.qsim.qnetsimengine.VehicularDepartureHandler
2020-10-22T10:45:36,153  INFO QSimProvider:115 Added MobsimEngine class org.matsim.core.mobsim.qsim.qnetsimengine.QNetsimEngineWithThreadpool
2020-10-22T10:45:36,153  INFO QSimProvider:115 Added MobsimEngine class org.matsim.core.mobsim.qsim.DefaultTeleportationEngine
2020-10-22T10:45:36,153  INFO QSimProvider:127 Added DepartureHandler class org.matsim.core.mobsim.qsim.DefaultTeleportationEngine
2020-10-22T10:45:36,154  INFO QSimProvider:133 Added AgentSource class org.matsim.core.mobsim.qsim.agents.PopulationAgentSource
2020-10-22T10:45:36,154  INFO MobsimListenerManager:49 calling addQueueSimulationListener
2020-10-22T10:45:36,154  INFO MobsimListenerManager:53   assigned class org.matsim.core.mobsim.framework.listeners.MobsimListener to interface org.matsim.core.mobsim.qsim.messagequeueengine.MessageQueueEngine
2020-10-22T10:45:36,154  INFO MobsimListenerManager:53   assigned class org.matsim.core.mobsim.framework.listeners.MobsimListener to interface org.matsim.core.mobsim.framework.listeners.MobsimListener
2020-10-22T10:45:36,154  INFO MobsimListenerManager:53   assigned class org.matsim.core.mobsim.framework.listeners.MobsimListener to interface org.matsim.core.mobsim.framework.listeners.MobsimBeforeSimStepListener
2020-10-22T10:45:36,154  INFO QSimProvider:139 Added MobsimListener class org.matsim.core.mobsim.qsim.messagequeueengine.MessageQueueEngine
2020-10-22T10:45:36,155  INFO QSimProvider:115 Added MobsimEngine class org.matsim.core.mobsim.qsim.pt.TransitQSimEngine
2020-10-22T10:45:36,155  INFO QSimProvider:127 Added DepartureHandler class org.matsim.core.mobsim.qsim.pt.TransitQSimEngine
2020-10-22T10:45:36,155  INFO QSimProvider:133 Added AgentSource class org.matsim.core.mobsim.qsim.pt.TransitQSimEngine
2020-10-22T10:45:36,164  INFO PopulationUtils:1194 adding scenario element for allpersons container
2020-10-22T10:45:36,164  INFO PopulationImpl:105  person # 1
2020-10-22T10:45:36,164  INFO PopulationImpl:105  person # 4
2020-10-22T10:45:36,164  INFO PopulationImpl:105  person # 16
2020-10-22T10:45:36,165  INFO PopulationImpl:105  person # 64
2020-10-22T10:45:36,167  INFO PopulationImpl:105  person # 256
2020-10-22T10:45:36,174  INFO PopulationImpl:105  person # 1024
2020-10-22T10:45:36,184  INFO PopulationImpl:105  person # 4096
2020-10-22T10:45:36,215  INFO PopulationImpl:105  person # 16384
2020-10-22T10:45:36,306  INFO PopulationImpl:105  person # 65536
2020-10-22T10:45:36,470  INFO ReconstructingUmlaufBuilder:132 Generating UmlaufStuecke ...
2020-10-22T10:45:36,472  INFO ReconstructingUmlaufBuilder:145 ... done generating UmlaufStuecke
2020-10-22T10:45:36,499  INFO VehicleUtils:324 adding scenario element for allvehicles container
2020-10-22T10:45:36,499  INFO Counter:69 [VehiclesImpl] added vehicle # 1
2020-10-22T10:45:36,499  INFO Counter:69 [VehiclesImpl] added vehicle # 2
2020-10-22T10:45:36,500  INFO Counter:69 [VehiclesImpl] added vehicle # 4
2020-10-22T10:45:36,500  INFO Counter:69 [VehiclesImpl] added vehicle # 8
2020-10-22T10:45:36,501  INFO Counter:69 [VehiclesImpl] added vehicle # 16
2020-10-22T10:45:36,502  INFO Counter:69 [VehiclesImpl] added vehicle # 32
2020-10-22T10:45:36,504  INFO Counter:69 [VehiclesImpl] added vehicle # 64
2020-10-22T10:45:36,538  INFO AbstractQNetsimEngine:427 Assigned 10601 nodes and 86000 links to QSimEngineRunner #0
2020-10-22T10:45:36,631  INFO EventsManagerImpl:137  event # 1
2020-10-22T10:45:36,633  INFO EventsManagerImpl:137  event # 4
2020-10-22T10:45:36,633  INFO EventsManagerImpl:137  event # 16
2020-10-22T10:45:36,634  INFO EventsManagerImpl:137  event # 64
2020-10-22T10:45:36,647  INFO AbstractQNetsimEngine:365 SIMULATION (QNetsimEngine) AT 00:00:00 : #links=0 #nodes=40
2020-10-22T10:45:36,653  INFO QSim:549 SIMULATION (NEW QSim) AT 00:00:00 : #Veh=100080 lost=0 simT=0.0s realT=0s; (s/r): 0.0
2020-10-22T10:45:36,655  INFO EventsManagerImpl:137  event # 256
2020-10-22T10:45:36,726  INFO EventsManagerImpl:137  event # 1024
2020-10-22T10:45:36,825  INFO EventsManagerImpl:137  event # 4096
2020-10-22T10:45:37,043  INFO EventsManagerImpl:137  event # 16384
2020-10-22T10:45:37,581  INFO EventsManagerImpl:137  event # 65536
2020-10-22T10:45:37,854  INFO AbstractQNetsimEngine:365 SIMULATION (QNetsimEngine) AT 01:00:00 : #links=40 #nodes=0
2020-10-22T10:45:37,855  INFO QSim:549 SIMULATION (NEW QSim) AT 01:00:00 : #Veh=98909 lost=0 simT=3600.0s realT=1s; (s/r): 3600.0
2020-10-22T10:45:38,776  INFO AbstractQNetsimEngine:365 SIMULATION (QNetsimEngine) AT 02:00:00 : #links=40 #nodes=0
2020-10-22T10:45:38,777  INFO QSim:549 SIMULATION (NEW QSim) AT 02:00:00 : #Veh=96135 lost=0 simT=7200.0s realT=2s; (s/r): 3600.0
2020-10-22T10:45:39,043  INFO EventsManagerImpl:137  event # 262144
2020-10-22T10:45:39,833  INFO AbstractQNetsimEngine:365 SIMULATION (QNetsimEngine) AT 03:00:00 : #links=40 #nodes=0
2020-10-22T10:45:39,833  INFO QSim:549 SIMULATION (NEW QSim) AT 03:00:00 : #Veh=93206 lost=0 simT=10800.0s realT=3s; (s/r): 3600.0
2020-10-22T10:45:40,607  INFO AbstractQNetsimEngine:365 SIMULATION (QNetsimEngine) AT 04:00:00 : #links=40 #nodes=0
2020-10-22T10:45:40,607  INFO QSim:549 SIMULATION (NEW QSim) AT 04:00:00 : #Veh=90297 lost=0 simT=14400.0s realT=4s; (s/r): 3600.0
2020-10-22T10:45:41,338  INFO AbstractQNetsimEngine:365 SIMULATION (QNetsimEngine) AT 05:00:00 : #links=40 #nodes=0
2020-10-22T10:45:41,339  INFO QSim:549 SIMULATION (NEW QSim) AT 05:00:00 : #Veh=87430 lost=0 simT=18000.0s realT=5s; (s/r): 3600.0
2020-10-22T10:45:42,197  INFO AbstractQNetsimEngine:365 SIMULATION (QNetsimEngine) AT 06:00:00 : #links=40 #nodes=0
2020-10-22T10:45:42,197  INFO QSim:549 SIMULATION (NEW QSim) AT 06:00:00 : #Veh=84544 lost=0 simT=21600.0s realT=6s; (s/r): 3600.0
2020-10-22T10:45:42,969  INFO AbstractQNetsimEngine:365 SIMULATION (QNetsimEngine) AT 07:00:00 : #links=40 #nodes=0
2020-10-22T10:45:42,969  INFO QSim:549 SIMULATION (NEW QSim) AT 07:00:00 : #Veh=81599 lost=0 simT=25200.0s realT=7s; (s/r): 3600.0
2020-10-22T10:45:43,741  INFO AbstractQNetsimEngine:365 SIMULATION (QNetsimEngine) AT 08:00:00 : #links=40 #nodes=0
2020-10-22T10:45:43,741  INFO QSim:549 SIMULATION (NEW QSim) AT 08:00:00 : #Veh=78709 lost=0 simT=28800.0s realT=7s; (s/r): 4114.285714285715
2020-10-22T10:45:44,136  INFO EventsManagerImpl:137  event # 1048576
2020-10-22T10:45:44,540  INFO AbstractQNetsimEngine:365 SIMULATION (QNetsimEngine) AT 09:00:00 : #links=40 #nodes=0
2020-10-22T10:45:44,540  INFO QSim:549 SIMULATION (NEW QSim) AT 09:00:00 : #Veh=75899 lost=0 simT=32400.0s realT=8s; (s/r): 4050.0
2020-10-22T10:45:45,248  INFO AbstractQNetsimEngine:365 SIMULATION (QNetsimEngine) AT 10:00:00 : #links=40 #nodes=0
2020-10-22T10:45:45,249  INFO QSim:549 SIMULATION (NEW QSim) AT 10:00:00 : #Veh=72918 lost=0 simT=36000.0s realT=9s; (s/r): 4000.0
2020-10-22T10:45:46,080  INFO AbstractQNetsimEngine:365 SIMULATION (QNetsimEngine) AT 11:00:00 : #links=40 #nodes=0
2020-10-22T10:45:46,080  INFO QSim:549 SIMULATION (NEW QSim) AT 11:00:00 : #Veh=70045 lost=0 simT=39600.0s realT=10s; (s/r): 3960.0
2020-10-22T10:45:46,872  INFO AbstractQNetsimEngine:365 SIMULATION (QNetsimEngine) AT 12:00:00 : #links=40 #nodes=0
2020-10-22T10:45:46,872  INFO QSim:549 SIMULATION (NEW QSim) AT 12:00:00 : #Veh=67109 lost=0 simT=43200.0s realT=10s; (s/r): 4320.0
2020-10-22T10:45:47,763  INFO AbstractQNetsimEngine:365 SIMULATION (QNetsimEngine) AT 13:00:00 : #links=40 #nodes=0
2020-10-22T10:45:47,763  INFO QSim:549 SIMULATION (NEW QSim) AT 13:00:00 : #Veh=64161 lost=0 simT=46800.0s realT=11s; (s/r): 4254.545454545455
2020-10-22T10:45:48,497  INFO AbstractQNetsimEngine:365 SIMULATION (QNetsimEngine) AT 14:00:00 : #links=40 #nodes=0
2020-10-22T10:45:48,498  INFO QSim:549 SIMULATION (NEW QSim) AT 14:00:00 : #Veh=61277 lost=0 simT=50400.0s realT=12s; (s/r): 4200.0
2020-10-22T10:45:49,330  INFO AbstractQNetsimEngine:365 SIMULATION (QNetsimEngine) AT 15:00:00 : #links=40 #nodes=0
2020-10-22T10:45:49,330  INFO QSim:549 SIMULATION (NEW QSim) AT 15:00:00 : #Veh=58350 lost=0 simT=54000.0s realT=13s; (s/r): 4153.846153846154
2020-10-22T10:45:50,061  INFO AbstractQNetsimEngine:365 SIMULATION (QNetsimEngine) AT 16:00:00 : #links=40 #nodes=0
2020-10-22T10:45:50,061  INFO QSim:549 SIMULATION (NEW QSim) AT 16:00:00 : #Veh=55397 lost=0 simT=57600.0s realT=14s; (s/r): 4114.285714285715
2020-10-22T10:45:51,009  INFO AbstractQNetsimEngine:365 SIMULATION (QNetsimEngine) AT 17:00:00 : #links=40 #nodes=0
2020-10-22T10:45:51,009  INFO QSim:549 SIMULATION (NEW QSim) AT 17:00:00 : #Veh=52508 lost=0 simT=61200.0s realT=15s; (s/r): 4080.0
2020-10-22T10:45:52,017  INFO AbstractQNetsimEngine:365 SIMULATION (QNetsimEngine) AT 18:00:00 : #links=40 #nodes=0
2020-10-22T10:45:52,017  INFO QSim:549 SIMULATION (NEW QSim) AT 18:00:00 : #Veh=49637 lost=0 simT=64800.0s realT=16s; (s/r): 4050.0
2020-10-22T10:45:53,025  INFO AbstractQNetsimEngine:365 SIMULATION (QNetsimEngine) AT 19:00:00 : #links=40 #nodes=0
2020-10-22T10:45:53,026  INFO QSim:549 SIMULATION (NEW QSim) AT 19:00:00 : #Veh=46692 lost=0 simT=68400.0s realT=17s; (s/r): 4023.529411764706
2020-10-22T10:45:53,959  INFO AbstractQNetsimEngine:365 SIMULATION (QNetsimEngine) AT 20:00:00 : #links=40 #nodes=0
2020-10-22T10:45:53,959  INFO QSim:549 SIMULATION (NEW QSim) AT 20:00:00 : #Veh=43799 lost=0 simT=72000.0s realT=17s; (s/r): 4235.294117647059
2020-10-22T10:45:54,772  INFO AbstractQNetsimEngine:365 SIMULATION (QNetsimEngine) AT 21:00:00 : #links=40 #nodes=0
2020-10-22T10:45:54,772  INFO QSim:549 SIMULATION (NEW QSim) AT 21:00:00 : #Veh=40900 lost=0 simT=75600.0s realT=18s; (s/r): 4200.0
2020-10-22T10:45:55,604  INFO AbstractQNetsimEngine:365 SIMULATION (QNetsimEngine) AT 22:00:00 : #links=40 #nodes=0
2020-10-22T10:45:55,604  INFO QSim:549 SIMULATION (NEW QSim) AT 22:00:00 : #Veh=37933 lost=0 simT=79200.0s realT=19s; (s/r): 4168.421052631579
2020-10-22T10:45:56,464  INFO AbstractQNetsimEngine:365 SIMULATION (QNetsimEngine) AT 23:00:00 : #links=40 #nodes=0
2020-10-22T10:45:56,464  INFO QSim:549 SIMULATION (NEW QSim) AT 23:00:00 : #Veh=35037 lost=0 simT=82800.0s realT=20s; (s/r): 4140.0
2020-10-22T10:45:57,332  INFO AbstractQNetsimEngine:365 SIMULATION (QNetsimEngine) AT 24:00:00 : #links=40 #nodes=0
2020-10-22T10:45:57,332  INFO QSim:549 SIMULATION (NEW QSim) AT 24:00:00 : #Veh=32122 lost=0 simT=86400.0s realT=21s; (s/r): 4114.285714285715
2020-10-22T10:45:57,964  INFO AbstractQNetsimEngine:365 SIMULATION (QNetsimEngine) AT 25:00:00 : #links=30 #nodes=10
2020-10-22T10:45:57,964  INFO QSim:549 SIMULATION (NEW QSim) AT 25:00:00 : #Veh=29301 lost=0 simT=90000.0s realT=21s; (s/r): 4285.714285714285
2020-10-22T10:45:58,441  INFO AbstractQNetsimEngine:365 SIMULATION (QNetsimEngine) AT 26:00:00 : #links=0 #nodes=0
2020-10-22T10:45:58,441  INFO QSim:549 SIMULATION (NEW QSim) AT 26:00:00 : #Veh=26816 lost=0 simT=93600.0s realT=22s; (s/r): 4254.545454545455
2020-10-22T10:45:58,616  INFO AbstractController$9:226 ### ITERATION 0 fires after mobsim event
2020-10-22T10:45:58,616  INFO ControlerListenerManagerImpl:248 calling notifyAfterMobsim on org.matsim.analysis.LegTimesControlerListener
2020-10-22T10:45:58,616  INFO Gbl:191 Thread performance: Thread=class org.matsim.core.events.SimStepParallelEventsManagerImpl$ProcessEventsRunnable0  cpu-time=16.339319511sec
2020-10-22T10:45:58,621  INFO LegTimesControlerListener:50 [0] average trip (probably: leg) duration is: 2528 seconds = 00:42:08
2020-10-22T10:45:58,621  INFO ControlerListenerManagerImpl:248 calling notifyAfterMobsim on org.matsim.core.events.MobsimScopeEventHandling
2020-10-22T10:45:58,622  INFO ControlerListenerManagerImpl:248 calling notifyAfterMobsim on org.matsim.core.scoring.EventsToActivities$1
2020-10-22T10:45:58,942  INFO ControlerListenerManagerImpl:251 [it.0] all ControlerAfterMobsimListeners called.
2020-10-22T10:45:58,943  INFO AbstractController$4:151 ### ITERATION 0 fires scoring event
2020-10-22T10:45:58,943  INFO ControlerListenerManagerImpl:183 calling notifyScoring on org.matsim.core.scoring.PlansScoringImpl
2020-10-22T10:45:59,009  INFO NewScoreAssignerImpl:57 it: 0 msaStart: null
2020-10-22T10:45:59,063  INFO ControlerListenerManagerImpl:194 [it.0] all ControlerScoringListeners called.
2020-10-22T10:45:59,064  INFO AbstractController$5:159 ### ITERATION 0 fires iteration end event
2020-10-22T10:45:59,064  INFO ControlerListenerManagerImpl:160 calling notifyIterationEnds on org.matsim.core.controler.corelisteners.EventsHandlingImpl
2020-10-22T10:45:59,065  INFO EventsManagerImpl:181 removing Event-Handler: org.matsim.core.events.algorithms.EventWriterXML
2020-10-22T10:45:59,065  INFO EventsManagerImpl:181 removing Event-Handler: org.matsim.core.events.algorithms.EventWriterXML
2020-10-22T10:45:59,065  INFO ControlerListenerManagerImpl:160 calling notifyIterationEnds on org.matsim.core.scoring.PlansScoringImpl
2020-10-22T10:45:59,112  INFO ControlerListenerManagerImpl:167 calling notifyIterationEnds on org.matsim.counts.CountsControlerListener
2020-10-22T10:45:59,112  INFO ControlerListenerManagerImpl:167 calling notifyIterationEnds on org.matsim.analysis.ModeStatsControlerListener
2020-10-22T10:45:59,319  INFO ModeStatsControlerListener:130 Mode shares over all 100000.0 trips found. MainModeIdentifier: class org.matsim.core.router.RoutingModeMainModeIdentifier
2020-10-22T10:45:59,319  INFO ModeStatsControlerListener:137 -- mode share of mode pt = 1.0
2020-10-22T10:45:59,320  INFO ControlerListenerManagerImpl:167 calling notifyIterationEnds on org.matsim.analysis.ScoreStatsControlerListener
2020-10-22T10:45:59,347  INFO ScoreStatsControlerListener:181 -- avg. score of the executed plan of each agent: -4380.300294881006
2020-10-22T10:45:59,347  INFO ScoreStatsControlerListener:182 -- avg. score of the worst plan of each agent: -4380.300294881006
2020-10-22T10:45:59,347  INFO ScoreStatsControlerListener:183 -- avg. of the avg. plan score per agent: -4380.300294881006
2020-10-22T10:45:59,347  INFO ScoreStatsControlerListener:184 -- avg. score of the best plan of each agent: -4380.300294881006
2020-10-22T10:45:59,353  INFO ControlerListenerManagerImpl:167 calling notifyIterationEnds on org.matsim.analysis.IterationTravelStatsControlerListener
2020-10-22T10:45:59,622  INFO TravelDistanceStats:143 -- average leg distance per plan (executed plans only): 2061.202635806749 meters
2020-10-22T10:45:59,622  INFO TravelDistanceStats:144 average leg distance per Person (executed plans only): 7644.134871100193 meters (statistic on all 370858 legs which have a finite distance)
2020-10-22T10:45:59,623  INFO TravelDistanceStats:145 -- average trip distance per plan (executed plans only): 9335.137733457344 meters
2020-10-22T10:45:59,623  INFO TravelDistanceStats:146 average trip distance per Person (executed plans only): 6831.8271988534225 meters (statistic on all 73184 trips which have a finite distance)
2020-10-22T10:45:59,623  INFO TravelDistanceStats:147 (TravelDistanceStats takes an average over all legs where the simulation reports travelled (network) distances
2020-10-22T10:45:59,623  INFO TravelDistanceStats:148 (and teleported legs whose route contains a distance.)
2020-10-22T10:46:05,206  INFO ControlerListenerManagerImpl:167 calling notifyIterationEnds on org.matsim.analysis.LegHistogramListener
2020-10-22T10:46:05,215  INFO LegHistogramListener:72 number of legs:	397674	100%
2020-10-22T10:46:05,218  INFO LegHistogramListener:79 number of pt legs:	162168	40.779130644698924%
2020-10-22T10:46:05,218  INFO LegHistogramListener:79 number of walk legs:	235506	59.220869355301076%
2020-10-22T10:46:05,492  INFO ControlerListenerManagerImpl:167 calling notifyIterationEnds on org.matsim.analysis.LinkStatsControlerListener
2020-10-22T10:46:05,492  INFO ControlerListenerManagerImpl:171 [it.0] all ControlerIterationEndsListeners called.
2020-10-22T10:46:05,562  INFO AbstractController:173 ### ITERATION 0 ENDS
2020-10-22T10:46:05,562  INFO AbstractController:174 ###################################################
2020-10-22T10:46:05,562  INFO MatsimRuntimeModifications:79 S H U T D O W N   ---   start shutdown.
2020-10-22T10:46:05,562  INFO ControlerListenerManagerImpl:121 calling notifyShutdown on org.matsim.core.controler.corelisteners.EventsHandlingImpl
2020-10-22T10:46:05,562  INFO ControlerListenerManagerImpl:121 calling notifyShutdown on org.matsim.core.controler.corelisteners.DumpDataAtEndImpl
2020-10-22T10:46:05,601  INFO Counter:69 [PopulationWriter] dumped person # 1
2020-10-22T10:46:05,601  INFO Counter:69 [PopulationWriter] dumped person # 2
2020-10-22T10:46:05,601  INFO Counter:69 [PopulationWriter] dumped person # 4
2020-10-22T10:46:05,602  INFO Counter:69 [PopulationWriter] dumped person # 8
2020-10-22T10:46:05,603  INFO Counter:69 [PopulationWriter] dumped person # 16
2020-10-22T10:46:05,605  INFO Counter:69 [PopulationWriter] dumped person # 32
2020-10-22T10:46:05,609  INFO Counter:69 [PopulationWriter] dumped person # 64
2020-10-22T10:46:05,616  INFO Counter:69 [PopulationWriter] dumped person # 128
2020-10-22T10:46:05,631  INFO Counter:69 [PopulationWriter] dumped person # 256
2020-10-22T10:46:05,658  INFO Counter:69 [PopulationWriter] dumped person # 512
2020-10-22T10:46:05,712  INFO Counter:69 [PopulationWriter] dumped person # 1024
2020-10-22T10:46:05,841  INFO Counter:69 [PopulationWriter] dumped person # 2048
2020-10-22T10:46:06,069  INFO Counter:69 [PopulationWriter] dumped person # 4096
2020-10-22T10:46:06,548  INFO Counter:69 [PopulationWriter] dumped person # 8192
2020-10-22T10:46:07,484  INFO Counter:69 [PopulationWriter] dumped person # 16384
2020-10-22T10:46:09,172  INFO Counter:69 [PopulationWriter] dumped person # 32768
2020-10-22T10:46:12,363  INFO Counter:69 [PopulationWriter] dumped person # 65536
2020-10-22T10:46:15,591  INFO PopulationWriter:144 Population written to: ./output/output_plans.xml.gz
2020-10-22T10:46:15,591  INFO Counter:74 [PopulationWriter] dumped person # 100000
2020-10-22T10:46:15,592  INFO NetworkWriter:69 Writing network to file: ./output/output_network.xml.gz...
2020-10-22T10:46:15,992  INFO NetworkWriter:72 done.
2020-10-22T10:46:15,996  INFO Config:572 setting context to [file:/home/helge/Programs/matsim/matsim-bimodal/scenarios/fine_grid/pt/]
2020-10-22T10:46:15,998  INFO Config:572 setting context to [file:/home/helge/Programs/matsim/matsim-bimodal/scenarios/fine_grid/pt/]
2020-10-22T10:46:16,001  INFO Config:572 setting context to [file:/home/helge/Programs/matsim/matsim-bimodal/scenarios/fine_grid/pt/]
2020-10-22T10:46:16,003  INFO Config:572 setting context to [file:/home/helge/Programs/matsim/matsim-bimodal/scenarios/fine_grid/pt/]
2020-10-22T10:46:16,008  INFO Config:572 setting context to [file:/home/helge/Programs/matsim/matsim-bimodal/scenarios/fine_grid/pt/]
2020-10-22T10:46:16,011  INFO Config:572 setting context to [file:/home/helge/Programs/matsim/matsim-bimodal/scenarios/fine_grid/pt/]
2020-10-22T10:46:16,013  INFO Config:572 setting context to [file:/home/helge/Programs/matsim/matsim-bimodal/scenarios/fine_grid/pt/]
2020-10-22T10:46:16,015  INFO Config:572 setting context to [file:/home/helge/Programs/matsim/matsim-bimodal/scenarios/fine_grid/pt/]
2020-10-22T10:46:16,017  INFO Config:572 setting context to [file:/home/helge/Programs/matsim/matsim-bimodal/scenarios/fine_grid/pt/]
2020-10-22T10:46:16,019  INFO Config:572 setting context to [file:/home/helge/Programs/matsim/matsim-bimodal/scenarios/fine_grid/pt/]
2020-10-22T10:46:16,021  INFO Config:572 setting context to [file:/home/helge/Programs/matsim/matsim-bimodal/scenarios/fine_grid/pt/]
2020-10-22T10:46:16,022  INFO Config:572 setting context to [file:/home/helge/Programs/matsim/matsim-bimodal/scenarios/fine_grid/pt/]
2020-10-22T10:46:16,029  INFO Config:572 setting context to [file:/home/helge/Programs/matsim/matsim-bimodal/scenarios/fine_grid/pt/]
2020-10-22T10:46:16,031  INFO Config:572 setting context to [file:/home/helge/Programs/matsim/matsim-bimodal/scenarios/fine_grid/pt/]
2020-10-22T10:46:16,032  INFO Config:572 setting context to [file:/home/helge/Programs/matsim/matsim-bimodal/scenarios/fine_grid/pt/]
2020-10-22T10:46:16,034  INFO Config:572 setting context to [file:/home/helge/Programs/matsim/matsim-bimodal/scenarios/fine_grid/pt/]
2020-10-22T10:46:16,038  INFO Config:572 setting context to [file:/home/helge/Programs/matsim/matsim-bimodal/scenarios/fine_grid/pt/]
2020-10-22T10:46:16,040  INFO Config:572 setting context to [file:/home/helge/Programs/matsim/matsim-bimodal/scenarios/fine_grid/pt/]
2020-10-22T10:46:16,042  INFO Config:572 setting context to [file:/home/helge/Programs/matsim/matsim-bimodal/scenarios/fine_grid/pt/]
2020-10-22T10:46:16,043  INFO Config:572 setting context to [file:/home/helge/Programs/matsim/matsim-bimodal/scenarios/fine_grid/pt/]
2020-10-22T10:46:16,049  INFO Config:572 setting context to [file:/home/helge/Programs/matsim/matsim-bimodal/scenarios/fine_grid/pt/]
2020-10-22T10:46:16,050  INFO Config:572 setting context to [file:/home/helge/Programs/matsim/matsim-bimodal/scenarios/fine_grid/pt/]
2020-10-22T10:46:16,053  INFO Config:572 setting context to [file:/home/helge/Programs/matsim/matsim-bimodal/scenarios/fine_grid/pt/]
2020-10-22T10:46:16,054  INFO Config:572 setting context to [file:/home/helge/Programs/matsim/matsim-bimodal/scenarios/fine_grid/pt/]
2020-10-22T10:46:16,056  INFO Config:572 setting context to [file:/home/helge/Programs/matsim/matsim-bimodal/scenarios/fine_grid/pt/]
2020-10-22T10:46:16,057  INFO Config:572 setting context to [file:/home/helge/Programs/matsim/matsim-bimodal/scenarios/fine_grid/pt/]
2020-10-22T10:46:16,059  INFO Config:572 setting context to [file:/home/helge/Programs/matsim/matsim-bimodal/scenarios/fine_grid/pt/]
2020-10-22T10:46:16,060  INFO Config:572 setting context to [file:/home/helge/Programs/matsim/matsim-bimodal/scenarios/fine_grid/pt/]
2020-10-22T10:46:16,062  INFO Config:572 setting context to [file:/home/helge/Programs/matsim/matsim-bimodal/scenarios/fine_grid/pt/]
2020-10-22T10:46:16,065  INFO TransitScheduleWriter:87 about to write transit schedule to: ./output/output_transitSchedule.xml.gz
2020-10-22T10:46:16,096  INFO MatsimVehicleWriter:54 about to write vehicles to: ./output/output_transitVehicles.xml.gz
2020-10-22T10:46:16,097  INFO VehicleWriterV2:63 about to write vehicles to: ./output/output_transitVehicles.xml.gz
2020-10-22T10:46:16,099  INFO MatsimVehicleWriter:54 about to write vehicles to: ./output/output_vehicles.xml.gz
2020-10-22T10:46:16,099  INFO VehicleWriterV2:63 about to write vehicles to: ./output/output_vehicles.xml.gz
2020-10-22T10:46:16,236  INFO MatsimVehicleWriter:54 about to write vehicles to: ./output/output_allVehicles.xml.gz
2020-10-22T10:46:16,236  INFO VehicleWriterV2:63 about to write vehicles to: ./output/output_allVehicles.xml.gz
2020-10-22T10:46:16,238  INFO HouseholdsWriterV10:66 about to write  households to: ./output/output_households.xml.gz
2020-10-22T10:46:16,238  INFO Counter:74 [HouseholdsWriter] wrote household # 0
2020-10-22T10:46:16,300  INFO ControlerListenerManagerImpl:126 calling notifyShutdown on org.matsim.analysis.ScoreStatsControlerListener
2020-10-22T10:46:16,301  INFO ControlerListenerManagerImpl:126 calling notifyShutdown on org.matsim.analysis.IterationTravelStatsControlerListener
2020-10-22T10:46:16,301  INFO IterationTravelStatsControlerListener:104 Writing all Person and Attributes to personscsv
2020-10-22T10:46:16,801  INFO IterationTravelStatsControlerListener:148 ...done
2020-10-22T10:46:16,801  INFO ControlerListenerManagerImpl:129 all ControlerShutdownListeners called.
2020-10-22T10:46:16,801  INFO MatsimRuntimeModifications:102 S H U T D O W N   ---   shutdown completed.
2020-10-22T10:46:16,801  INFO OutputDirectoryLogging:170 closing the logfile, i.e. messages sent to the logger after this message are not written to the logfile.
